<?xml version="1.0" encoding="UTF-8"?>

<!-- generated on 2023-03-11 20:59:39 by Eclipse SUMO netedit Version 1.15.0
-->

<routes xmlns:xsi="http://www.w3.org/2001/XMLSchema-instance" xsi:noNamespaceSchemaLocation="http://sumo.dlr.de/xsd/routes_file.xsd">
    <!-- Routes -->
    <route id="r_0" edges="E4 -E2" color="yellow"/>
    <route id="r_1" edges="E4 E3" color="yellow"/>
    <route id="r_2" edges="E2 -E4" color="yellow"/>
    <route id="r_3" edges="E2 E3" color="yellow"/>
    <route id="r_4" edges="-E3 -E4" color="yellow"/>
    <route id="r_5" edges="-E3 -E2" color="yellow"/>
    <!-- Vehicles, persons and containers (sorted by depart) -->
    <flow id="f_0" begin="0.00" departLane="best" route="r_0" end="11000.00" period="exp(5.00)"/>
    <flow id="f_1" begin="0.00" departLane="best" route="r_1" end="11000.00" period="exp(5.00)"/>
    <flow id="f_2" begin="0.00" departLane="best" color="blue" route="r_4" end="11000.00" period="exp(5.00)"/>
    <flow id="f_3" begin="0.00" departLane="best" color="blue" route="r_5" end="11000.00" period="exp(5.00)"/>
    <flow id="f_4" begin="0.00" departLane="best" color="magenta" route="r_2" end="11000.00" period="exp(5.00)"/>
    <flow id="f_5" begin="0.00" departLane="best" color="magenta" route="r_3" end="11000.00" period="exp(5.00)"/>
</routes>
