<?xml version="1.0" encoding="UTF-8"?>

<!-- generated on 2023-03-12 18:17:50 by Eclipse SUMO netedit Version 1.15.0
-->

<routes xmlns:xsi="http://www.w3.org/2001/XMLSchema-instance" xsi:noNamespaceSchemaLocation="http://sumo.dlr.de/xsd/routes_file.xsd">
    <!-- Routes -->
    <route id="r_0" edges="E4 -E2" color="yellow"/>
    <route id="r_1" edges="E4 E3" color="yellow"/>
    <route id="r_2" edges="E2 -E4" color="yellow"/>
    <route id="r_3" edges="E2 E3" color="yellow"/>
    <route id="r_4" edges="-E3 -E4" color="yellow"/>
    <route id="r_5" edges="-E3 -E2" color="yellow"/>
    <!-- Vehicles, persons and containers (sorted by depart) -->
    <flow id="n_0" begin="0.00" departLane="random" color="magenta" route="r_4" end="2000.00" probability="0.04"/>
    <flow id="n_1" begin="0.00" departLane="random" color="magenta" route="r_5" end="2000.00" probability="0.06"/>
    <flow id="s_0" begin="0.00" departLane="random" route="r_2" end="2000.00" probability="0.04"/>
    <flow id="s_1" begin="0.00" departLane="random" route="r_3" end="2000.00" probability="0.06"/>
    <flow id="w_0" begin="0.00" departLane="random" color="blue" route="r_0" end="2000.00" probability="0.03"/>
    <flow id="w_1" begin="0.00" departLane="random" color="blue" route="r_1" end="2000.00" probability="0.05"/>
    <flow id="n_2" begin="2000.00" departLane="random" color="magenta" route="r_4" end="5000.00" probability="0.08"/>
    <flow id="n_3" begin="2000.00" departLane="random" color="magenta" route="r_5" end="5000.00" probability="0.13"/>
    <flow id="s_2" begin="2000.00" departLane="random" route="r_2" end="5000.00" probability="0.08"/>
    <flow id="s_3" begin="2000.00" departLane="random" route="r_3" end="5000.00" probability="0.13"/>
    <flow id="w_2" begin="2000.00" departLane="random" color="blue" route="r_0" end="5000.00" probability="0.07"/>
    <flow id="w_3" begin="2000.00" departLane="random" color="blue" route="r_1" end="5000.00" probability="0.11"/>
    <flow id="n_4" begin="5000.00" departLane="random" color="magenta" route="r_4" end="7000.00" probability="0.03"/>
    <flow id="n_5" begin="5000.00" departLane="random" color="magenta" route="r_5" end="7000.00" probability="0.05"/>
    <flow id="s_4" begin="5000.00" departLane="random" route="r_3" end="7000.00" probability="0.06"/>
    <flow id="s_5" begin="5000.00" departLane="random" route="r_2" end="7000.00" probability="0.03"/>
    <flow id="w_4" begin="5000.00" departLane="random" color="blue" route="r_0" end="7000.00" probability="0.05"/>
    <flow id="w_5" begin="5000.00" departLane="random" color="blue" route="r_1" end="7000.00" probability="0.03"/>
</routes>
