<?xml version="1.0" encoding="UTF-8"?>

<!-- generated on 2023-02-17 21:27:10 by Eclipse SUMO netedit Version 1.15.0
<configuration xmlns:xsi="http://www.w3.org/2001/XMLSchema-instance" xsi:noNamespaceSchemaLocation="http://sumo.dlr.de/xsd/netconvertConfiguration.xsd">

    <output>
        <output-file value="C:\Users\sskil\PycharmProjects\course_work\sumo_env\tomsk.net.xml"/>
    </output>

    <processing>
        <offset.disable-normalization value="true"/>
    </processing>

    <junctions>
        <no-turnarounds value="true"/>
    </junctions>

</configuration>
-->

<net version="1.9" junctionCornerDetail="5" limitTurnSpeed="5.50" xmlns:xsi="http://www.w3.org/2001/XMLSchema-instance" xsi:noNamespaceSchemaLocation="http://sumo.dlr.de/xsd/net_file.xsd">

    <location netOffset="0.00,0.00" convBoundary="0.00,100.00,200.00,200.00" origBoundary="10000000000.00,10000000000.00,-10000000000.00,-10000000000.00" projParameter="!"/>

    <edge id=":J1_0" function="internal">
        <lane id=":J1_0_0" index="0" speed="4.20" length="1.26" shape="100.00,98.40 100.32,98.43 100.61,98.52 100.88,98.66 101.13,98.87"/>
    </edge>

    <edge id="E0" from="J0" to="J1" priority="-1">
        <lane id="E0_0" index="0" speed="13.89" length="100.00" shape="0.00,98.40 100.00,98.40"/>
    </edge>
    <edge id="E1" from="J1" to="J2" priority="-1">
        <lane id="E1_0" index="0" speed="13.89" length="141.42" shape="101.13,98.87 201.13,198.87"/>
    </edge>

    <junction id="J0" type="dead_end" x="0.00" y="100.00" incLanes="" intLanes="" shape="0.00,100.00 0.00,96.80"/>
    <junction id="J1" type="priority" x="100.00" y="100.00" incLanes="E0_0" intLanes=":J1_0_0" shape="100.00,100.00 102.26,97.74 101.59,97.22 101.23,97.03 100.84,96.90 100.43,96.83 100.00,96.80">
        <request index="0" response="0" foes="0" cont="0"/>
    </junction>
    <junction id="J2" type="dead_end" x="200.00" y="200.00" incLanes="E1_0" intLanes="" shape="202.26,197.74 200.00,200.00"/>

    <connection from="E0" to="E1" fromLane="0" toLane="0" via=":J1_0_0" dir="l" state="M"/>

    <connection from=":J1_0" to="E1" fromLane="0" toLane="0" dir="l" state="M"/>

</net>
