<?xml version="1.0" encoding="UTF-8"?>

<!-- generated on 2023-02-18 00:29:48 by Eclipse SUMO netedit Version 1.15.0
<configuration xmlns:xsi="http://www.w3.org/2001/XMLSchema-instance" xsi:noNamespaceSchemaLocation="http://sumo.dlr.de/xsd/netconvertConfiguration.xsd">

    <input>
        <sumo-net-file value="C:\Users\sskil\Sumo\2023-02-18-00-07-45\osm.net.xml.gz"/>
    </input>

    <output>
        <output-file value="C:\Users\sskil\PycharmProjects\course_work\sumo_env\tomsk.net.xml"/>
        <output.street-names value="true"/>
    </output>

    <processing>
        <geometry.min-radius.fix.railways value="false"/>
        <geometry.max-grade.fix value="false"/>
        <offset.disable-normalization value="true"/>
        <lefthand value="0"/>
    </processing>

    <junctions>
        <no-turnarounds value="true"/>
        <junctions.corner-detail value="5"/>
        <junctions.limit-turn-speed value="5.50"/>
        <rectangular-lane-cut value="0"/>
    </junctions>

    <pedestrian>
        <walkingareas value="0"/>
    </pedestrian>

    <netedit>
        <route-files value="C:\Users\sskil\PycharmProjects\course_work\sumo_env\tomsk.rou.xml"/>
    </netedit>

</configuration>
-->

<net version="1.9" junctionCornerDetail="5" limitTurnSpeed="5.50" xmlns:xsi="http://www.w3.org/2001/XMLSchema-instance" xsi:noNamespaceSchemaLocation="http://sumo.dlr.de/xsd/net_file.xsd">

    <location netOffset="-374836.57,-6257813.09" convBoundary="0.00,567.88,601.87,1368.08" origBoundary="84.969042,56.448235,84.988598,56.462118" projParameter="+proj=utm +zone=45 +ellps=WGS84 +datum=WGS84 +units=m +no_defs"/>

    <type id="highway.bridleway" priority="1" numLanes="1" speed="2.78" allow="pedestrian" oneway="1" width="2.00"/>
    <type id="highway.bus_guideway" priority="1" numLanes="1" speed="27.78" allow="bus" oneway="1"/>
    <type id="highway.cycleway" priority="1" numLanes="1" speed="5.56" allow="bicycle" oneway="0" width="1.00"/>
    <type id="highway.footway" priority="1" numLanes="1" speed="2.78" allow="pedestrian" oneway="1" width="2.00"/>
    <type id="highway.ford" priority="1" numLanes="1" speed="2.78" allow="army" oneway="0"/>
    <type id="highway.living_street" priority="2" numLanes="1" speed="2.78" disallow="tram rail_urban rail rail_electric rail_fast ship" oneway="0"/>
    <type id="highway.motorway" priority="14" numLanes="2" speed="39.44" allow="private emergency authority army vip passenger hov taxi bus coach delivery truck trailer motorcycle evehicle custom1 custom2" oneway="1"/>
    <type id="highway.motorway_link" priority="9" numLanes="1" speed="22.22" allow="private emergency authority army vip passenger hov taxi bus coach delivery truck trailer motorcycle evehicle custom1 custom2" oneway="1"/>
    <type id="highway.path" priority="1" numLanes="1" speed="5.56" allow="pedestrian bicycle" oneway="0" width="2.00"/>
    <type id="highway.pedestrian" priority="1" numLanes="1" speed="2.78" allow="pedestrian" oneway="1" width="2.00"/>
    <type id="highway.primary" priority="12" numLanes="2" speed="27.78" disallow="tram rail_urban rail rail_electric rail_fast ship" oneway="0"/>
    <type id="highway.primary_link" priority="7" numLanes="1" speed="22.22" disallow="tram rail_urban rail rail_electric rail_fast ship" oneway="0"/>
    <type id="highway.raceway" priority="15" numLanes="2" speed="83.33" allow="vip" oneway="0"/>
    <type id="highway.residential" priority="3" numLanes="1" speed="13.89" disallow="tram rail_urban rail rail_electric rail_fast ship" oneway="0"/>
    <type id="highway.secondary" priority="11" numLanes="1" speed="27.78" disallow="tram rail_urban rail rail_electric rail_fast ship" oneway="0"/>
    <type id="highway.secondary_link" priority="6" numLanes="1" speed="22.22" disallow="tram rail_urban rail rail_electric rail_fast ship" oneway="0"/>
    <type id="highway.service" priority="1" numLanes="1" speed="5.56" allow="pedestrian delivery bicycle" oneway="0"/>
    <type id="highway.stairs" priority="1" numLanes="1" speed="1.39" allow="pedestrian" oneway="1" width="2.00"/>
    <type id="highway.step" priority="1" numLanes="1" speed="1.39" allow="pedestrian" oneway="1" width="2.00"/>
    <type id="highway.steps" priority="1" numLanes="1" speed="1.39" allow="pedestrian" oneway="1" width="2.00"/>
    <type id="highway.tertiary" priority="10" numLanes="1" speed="22.22" disallow="tram rail_urban rail rail_electric rail_fast ship" oneway="0"/>
    <type id="highway.tertiary_link" priority="5" numLanes="1" speed="22.22" disallow="tram rail_urban rail rail_electric rail_fast ship" oneway="0"/>
    <type id="highway.track" priority="1" numLanes="1" speed="5.56" allow="pedestrian motorcycle moped bicycle" oneway="0"/>
    <type id="highway.trunk" priority="13" numLanes="2" speed="27.78" disallow="pedestrian bicycle tram rail_urban rail rail_electric rail_fast ship" oneway="0"/>
    <type id="highway.trunk_link" priority="8" numLanes="1" speed="22.22" disallow="pedestrian bicycle tram rail_urban rail rail_electric rail_fast ship" oneway="0"/>
    <type id="highway.unclassified" priority="4" numLanes="1" speed="13.89" disallow="tram rail_urban rail rail_electric rail_fast ship" oneway="0"/>
    <type id="highway.unsurfaced" priority="1" numLanes="1" speed="8.33" disallow="tram rail_urban rail rail_electric rail_fast ship" oneway="0"/>
    <type id="railway.highspeed" priority="21" numLanes="1" speed="69.44" allow="rail_fast" oneway="1"/>
    <type id="railway.light_rail" priority="19" numLanes="1" speed="27.78" allow="rail_urban" oneway="1"/>
    <type id="railway.preserved" priority="16" numLanes="1" speed="27.78" allow="rail" oneway="1"/>
    <type id="railway.rail" priority="20" numLanes="1" speed="44.44" allow="rail" oneway="1"/>
    <type id="railway.subway" priority="18" numLanes="1" speed="27.78" allow="rail_urban" oneway="1"/>
    <type id="railway.tram" priority="17" numLanes="1" speed="13.89" allow="tram" oneway="1"/>

    <edge id=":1255622257_0" function="internal">
        <lane id=":1255622257_0_0" index="0" disallow="tram rail_urban rail rail_electric rail_fast ship" speed="16.67" length="0.19" shape="327.79,901.34 327.73,901.45"/>
        <lane id=":1255622257_0_1" index="1" disallow="tram rail_urban rail rail_electric rail_fast ship" speed="16.67" length="0.19" shape="325.08,899.65 324.98,899.81"/>
        <lane id=":1255622257_0_2" index="2" disallow="tram rail_urban rail rail_electric rail_fast ship" speed="16.67" length="0.19" shape="322.36,897.96 322.23,898.17"/>
    </edge>
    <edge id=":1255622257_3" function="internal">
        <lane id=":1255622257_3_0" index="0" disallow="tram rail_urban rail rail_electric rail_fast ship" speed="16.67" length="0.37" shape="313.99,893.25 314.21,892.88"/>
        <lane id=":1255622257_3_1" index="1" disallow="tram rail_urban rail rail_electric rail_fast ship" speed="16.67" length="0.37" shape="316.74,894.89 316.93,894.57"/>
        <lane id=":1255622257_3_2" index="2" disallow="tram rail_urban rail rail_electric rail_fast ship" speed="16.67" length="0.37" shape="319.48,896.53 319.65,896.26"/>
    </edge>
    <edge id=":1259067506_0" function="internal">
        <lane id=":1259067506_0_0" index="0" disallow="tram rail_urban rail rail_electric rail_fast ship" speed="16.67" length="23.67" shape="442.53,764.74 453.08,785.94"/>
        <lane id=":1259067506_0_1" index="1" disallow="tram rail_urban rail rail_electric rail_fast ship" speed="16.67" length="24.25" shape="442.53,764.74 445.37,771.63 446.59,776.97 447.72,781.91 450.34,787.59"/>
    </edge>
    <edge id=":1259067506_2" function="internal">
        <lane id=":1259067506_2_0" index="0" disallow="tram rail_urban rail rail_electric rail_fast ship" speed="15.07" length="23.78" shape="442.53,764.74 444.98,770.80 446.00,776.85 445.61,782.87 443.80,788.87"/>
        <lane id=":1259067506_2_1" index="1" disallow="tram rail_urban rail rail_electric rail_fast ship" speed="14.68" length="23.78" shape="439.69,766.22 441.83,771.71 442.63,777.35 442.09,783.15 440.22,789.12"/>
        <lane id=":1259067506_2_2" index="2" disallow="tram rail_urban rail rail_electric rail_fast ship" speed="13.11" length="23.78" shape="436.85,767.70 438.97,773.19 439.61,778.64 438.75,784.04 436.39,789.39"/>
    </edge>
    <edge id=":179255310_0" function="internal">
        <lane id=":179255310_0_0" index="0" disallow="tram rail_urban rail rail_electric rail_fast ship" speed="16.67" length="19.31" shape="349.64,749.54 355.08,748.19 358.85,747.36 362.54,746.32 367.77,744.33"/>
        <lane id=":179255310_0_1" index="1" disallow="tram rail_urban rail rail_electric rail_fast ship" speed="16.67" length="19.31" shape="350.47,752.63 356.04,751.25 359.88,750.39 363.65,749.32 369.00,747.29"/>
        <lane id=":179255310_0_2" index="2" disallow="tram rail_urban rail rail_electric rail_fast ship" speed="16.67" length="19.31" shape="351.31,755.72 356.99,754.30 360.91,753.42 364.76,752.33 370.22,750.25"/>
    </edge>
    <edge id=":179255310_3" function="internal">
        <lane id=":179255310_3_0" index="0" disallow="pedestrian tram rail_urban rail rail_electric rail_fast ship" speed="15.29" length="20.28" shape="353.81,759.47 356.35,753.66 358.73,749.82 362.14,747.02 367.77,744.33"/>
        <lane id=":179255310_3_1" index="1" disallow="pedestrian tram rail_urban rail rail_electric rail_fast ship" speed="14.85" length="20.28" shape="356.25,761.91 358.58,756.38 360.68,752.64 363.75,749.88 369.00,747.29"/>
        <lane id=":179255310_3_2" index="2" disallow="pedestrian tram rail_urban rail rail_electric rail_fast ship" speed="14.41" length="20.28" shape="358.69,764.36 360.81,759.10 362.63,755.46 365.36,752.74 370.22,750.25"/>
    </edge>
    <edge id=":179255321_0" function="internal">
        <lane id=":179255321_0_0" index="0" disallow="tram rail_urban rail rail_electric rail_fast ship" speed="16.67" length="20.96" shape="436.22,741.47 436.51,747.43 436.88,751.55 437.98,755.47 440.48,760.81"/>
        <lane id=":179255321_0_1" index="1" disallow="tram rail_urban rail rail_electric rail_fast ship" speed="16.67" length="20.96" shape="433.05,742.12 433.38,748.33 433.81,752.63 435.01,756.72 437.64,762.29"/>
        <lane id=":179255321_0_2" index="2" disallow="tram rail_urban rail rail_electric rail_fast ship" speed="16.67" length="20.96" shape="429.89,742.76 430.25,749.24 430.74,753.71 432.03,757.96 434.80,763.76"/>
    </edge>
    <edge id=":179255321_3" function="internal">
        <lane id=":179255321_3_0" index="0" disallow="pedestrian tram rail_urban rail rail_electric rail_fast ship" speed="16.67" length="21.23" shape="426.12,744.65 431.16,748.76 434.54,751.74 437.30,755.22 440.48,760.81"/>
        <lane id=":179255321_3_1" index="1" disallow="pedestrian tram rail_urban rail rail_electric rail_fast ship" speed="16.67" length="21.23" shape="423.64,746.74 428.53,750.70 431.84,753.56 434.54,756.89 437.64,762.29"/>
        <lane id=":179255321_3_2" index="2" disallow="pedestrian tram rail_urban rail rail_electric rail_fast ship" speed="16.67" length="21.23" shape="421.13,748.85 426.19,752.25 429.40,755.01 431.89,758.42 434.80,763.76"/>
    </edge>
    <edge id=":179255330_0" function="internal">
        <lane id=":179255330_0_0" index="0" disallow="tram rail_urban rail rail_electric rail_fast ship" speed="16.49" length="20.36" shape="398.48,811.07 392.57,810.82 388.50,811.60 384.72,813.59 379.69,816.92"/>
        <lane id=":179255330_0_1" index="1" disallow="tram rail_urban rail rail_electric rail_fast ship" speed="16.54" length="20.48" shape="398.48,811.07 392.43,810.30 388.09,809.95 384.04,810.79 378.88,813.63"/>
        <lane id=":179255330_0_2" index="2" disallow="tram rail_urban rail rail_electric rail_fast ship" speed="16.67" length="21.33" shape="398.48,811.07 392.20,809.74 387.66,808.22 383.42,807.93 378.06,810.33"/>
    </edge>
    <edge id=":179255330_3" function="internal">
        <lane id=":179255330_3_0" index="0" disallow="pedestrian tram rail_urban rail rail_electric rail_fast ship" speed="16.67" length="20.75" shape="398.48,811.07 392.25,810.35 388.03,809.50 383.92,808.18 378.00,806.05"/>
        <lane id=":179255330_3_1" index="1" disallow="pedestrian tram rail_urban rail rail_electric rail_fast ship" speed="16.67" length="20.75" shape="398.79,807.88 392.70,807.17 388.57,806.32 384.54,805.01 378.75,802.92"/>
        <lane id=":179255330_3_2" index="2" disallow="pedestrian tram rail_urban rail rail_electric rail_fast ship" speed="16.67" length="20.75" shape="399.11,804.70 393.14,803.99 389.10,803.15 385.17,801.85 379.50,799.80"/>
    </edge>
    <edge id=":2122515479_0" function="internal">
        <lane id=":2122515479_0_0" index="0" disallow="tram rail_urban rail rail_electric rail_fast ship" speed="14.92" length="6.10" shape="304.80,777.70 303.44,777.18 302.49,776.85 301.51,776.69 300.08,776.68"/>
        <lane id=":2122515479_0_1" index="1" disallow="tram rail_urban rail rail_electric rail_fast ship" speed="15.28" length="6.10" shape="305.88,774.69 304.19,774.05 303.00,773.66 301.78,773.48 299.98,773.48"/>
        <lane id=":2122515479_0_2" index="2" disallow="tram rail_urban rail rail_electric rail_fast ship" speed="15.28" length="6.10" shape="306.97,771.68 304.94,770.92 303.51,770.47 302.04,770.28 299.88,770.28"/>
    </edge>
    <edge id=":2122515479_3" function="internal">
        <lane id=":2122515479_3_0" index="0" disallow="tram rail_urban rail rail_electric rail_fast ship" speed="15.28" length="12.59" shape="299.59,760.68 303.12,760.71 305.55,760.82 307.95,760.68 311.35,759.94"/>
        <lane id=":2122515479_3_1" index="1" disallow="tram rail_urban rail rail_electric rail_fast ship" speed="15.28" length="12.59" shape="299.69,763.88 303.43,763.90 306.02,764.00 308.56,763.83 312.19,763.03"/>
        <lane id=":2122515479_3_2" index="2" disallow="tram rail_urban rail rail_electric rail_fast ship" speed="15.28" length="12.59" shape="299.79,767.08 303.75,767.09 306.49,767.18 309.18,766.97 313.02,766.12"/>
    </edge>
    <edge id=":322064770_0" function="internal">
        <lane id=":322064770_0_0" index="0" disallow="tram rail_urban rail rail_electric rail_fast ship" speed="16.67" length="29.02" shape="380.56,739.05 388.56,735.85 394.05,733.65 399.34,731.07 406.77,726.73"/>
        <lane id=":322064770_0_1" index="1" disallow="tram rail_urban rail rail_electric rail_fast ship" speed="16.67" length="29.25" shape="380.56,739.05 388.79,736.30 394.72,735.12 400.46,733.55 408.11,729.66"/>
        <lane id=":322064770_0_2" index="2" disallow="tram rail_urban rail rail_electric rail_fast ship" speed="16.67" length="29.95" shape="380.56,739.05 389.07,736.74 395.40,736.60 401.53,736.07 409.45,732.60"/>
    </edge>
    <edge id=":322064770_3" function="internal">
        <lane id=":322064770_3_0" index="0" disallow="pedestrian tram rail_urban rail rail_electric rail_fast ship" speed="16.67" length="30.36" shape="380.56,739.05 389.11,735.51 395.47,733.71 401.85,733.98 410.50,736.65"/>
        <lane id=":322064770_3_1" index="1" disallow="pedestrian tram rail_urban rail rail_electric rail_fast ship" speed="16.67" length="30.36" shape="381.78,742.00 390.09,738.65 396.26,737.09 402.46,737.53 410.86,740.21"/>
        <lane id=":322064770_3_2" index="2" disallow="pedestrian tram rail_urban rail rail_electric rail_fast ship" speed="16.67" length="30.36" shape="383.00,744.96 391.06,741.80 397.05,740.47 403.07,741.09 411.22,743.77"/>
    </edge>
    <edge id=":4554212696_0" function="internal">
        <lane id=":4554212696_0_0" index="0" disallow="tram rail_urban rail rail_electric rail_fast ship" speed="3.65" length="4.67" shape="602.94,942.36 603.30,943.76 603.06,944.62 602.22,944.95 600.80,944.74"/>
    </edge>
    <edge id=":552894114_0" function="internal">
        <lane id=":552894114_0_0" index="0" disallow="tram rail_urban rail rail_electric rail_fast ship" speed="16.67" length="10.21" shape="372.03,823.97 370.70,826.40 370.57,828.45 370.54,830.57 369.52,833.22"/>
        <lane id=":552894114_0_1" index="1" disallow="tram rail_urban rail rail_electric rail_fast ship" speed="16.67" length="10.21" shape="369.56,821.94 368.15,824.47 367.95,826.59 367.87,828.80 366.79,831.56"/>
        <lane id=":552894114_0_2" index="2" disallow="tram rail_urban rail rail_electric rail_fast ship" speed="16.67" length="10.21" shape="367.09,819.90 365.59,822.54 365.34,824.74 365.20,827.02 364.05,829.90"/>
    </edge>
    <edge id=":552894114_3" function="internal">
        <lane id=":552894114_3_0" index="0" disallow="tram rail_urban rail rail_electric rail_fast ship" speed="11.94" length="8.44" shape="355.85,824.92 356.73,823.18 357.01,821.85 356.97,820.43 356.92,818.42"/>
        <lane id=":552894114_3_1" index="1" disallow="tram rail_urban rail rail_electric rail_fast ship" speed="13.32" length="8.44" shape="358.58,826.58 359.72,824.41 360.13,822.75 360.16,820.98 360.12,818.47"/>
        <lane id=":552894114_3_2" index="2" disallow="tram rail_urban rail rail_electric rail_fast ship" speed="14.58" length="8.44" shape="361.32,828.24 362.71,825.63 363.26,823.65 363.34,821.54 363.32,818.52"/>
    </edge>
    <edge id=":642937377_0" function="internal">
        <lane id=":642937377_0_0" index="0" disallow="tram rail_urban rail rail_electric rail_fast ship" speed="13.89" length="14.41" shape="182.01,780.24 167.60,780.66"/>
        <lane id=":642937377_0_1" index="1" disallow="tram rail_urban rail rail_electric rail_fast ship" speed="13.89" length="14.41" shape="181.91,777.04 167.51,777.47"/>
        <lane id=":642937377_0_2" index="2" disallow="tram rail_urban rail rail_electric rail_fast ship" speed="13.89" length="14.41" shape="181.82,773.84 167.42,774.27"/>
    </edge>
    <edge id=":642937377_3" function="internal">
        <lane id=":642937377_3_0" index="0" disallow="tram rail_urban rail rail_electric rail_fast ship" speed="9.30" length="3.06" shape="181.82,773.84 178.82,773.20"/>
    </edge>
    <edge id=":642937377_4" function="internal">
        <lane id=":642937377_4_0" index="0" disallow="tram rail_urban rail rail_electric rail_fast ship" speed="3.65" length="1.44" shape="181.82,773.84 180.59,773.07"/>
    </edge>
    <edge id=":642937377_13" function="internal">
        <lane id=":642937377_13_0" index="0" disallow="tram rail_urban rail rail_electric rail_fast ship" speed="9.30" length="16.66" shape="178.82,773.20 177.89,773.00 175.04,770.22 173.29,765.50 172.62,758.84"/>
    </edge>
    <edge id=":642937377_14" function="internal">
        <lane id=":642937377_14_0" index="0" disallow="tram rail_urban rail rail_electric rail_fast ship" speed="3.65" length="3.23" shape="180.59,773.07 180.17,772.29 180.55,771.48 181.72,770.64"/>
    </edge>
    <edge id=":642937377_5" function="internal">
        <lane id=":642937377_5_0" index="0" disallow="tram rail_urban rail rail_electric rail_fast ship" speed="6.48" length="9.03" shape="175.82,758.79 176.21,761.24 177.29,762.96 179.06,763.97 181.53,764.24"/>
    </edge>
    <edge id=":642937377_6" function="internal">
        <lane id=":642937377_6_0" index="0" disallow="tram rail_urban rail rail_electric rail_fast ship" speed="9.98" length="22.45" shape="175.82,758.79 175.41,766.87 173.89,772.67 171.26,776.20 167.51,777.47"/>
        <lane id=":642937377_6_1" index="1" disallow="tram rail_urban rail rail_electric rail_fast ship" speed="9.36" length="19.61" shape="175.82,758.79 175.38,765.47 173.84,770.27 171.18,773.20 167.42,774.27"/>
    </edge>
    <edge id=":642937377_8" function="internal">
        <lane id=":642937377_8_0" index="0" disallow="tram rail_urban rail rail_electric rail_fast ship" speed="6.56" length="9.10" shape="167.13,764.67 169.57,764.25 171.29,763.13 172.31,761.33 172.62,758.84"/>
    </edge>
    <edge id=":642937377_9" function="internal">
        <lane id=":642937377_9_0" index="0" disallow="tram rail_urban rail rail_electric rail_fast ship" speed="13.89" length="14.40" shape="167.13,764.67 181.53,764.24"/>
        <lane id=":642937377_9_1" index="1" disallow="tram rail_urban rail rail_electric rail_fast ship" speed="13.89" length="14.40" shape="167.23,767.87 181.62,767.44"/>
        <lane id=":642937377_9_2" index="2" disallow="tram rail_urban rail rail_electric rail_fast ship" speed="13.89" length="14.40" shape="167.32,771.07 181.72,770.64"/>
    </edge>
    <edge id=":642937377_12" function="internal">
        <lane id=":642937377_12_0" index="0" disallow="tram rail_urban rail rail_electric rail_fast ship" speed="3.65" length="1.44" shape="167.32,771.07 168.54,771.83"/>
    </edge>
    <edge id=":642937377_15" function="internal">
        <lane id=":642937377_15_0" index="0" disallow="tram rail_urban rail rail_electric rail_fast ship" speed="3.65" length="3.23" shape="168.54,771.83 168.97,772.62 168.59,773.43 167.42,774.27"/>
    </edge>
    <edge id=":642937388_0" function="internal">
        <lane id=":642937388_0_0" index="0" disallow="tram rail_urban rail rail_electric rail_fast ship" speed="11.35" length="18.80" shape="355.67,805.77 354.49,801.23 352.19,797.45 348.75,794.42 344.19,792.14"/>
    </edge>
    <edge id=":642937388_1" function="internal">
        <lane id=":642937388_1_0" index="0" disallow="pedestrian tram rail_urban rail rail_electric rail_fast ship" speed="16.67" length="23.77" shape="355.67,805.77 354.43,798.89 353.01,794.29 351.56,789.69 350.25,782.82"/>
        <lane id=":642937388_1_1" index="1" disallow="pedestrian tram rail_urban rail rail_electric rail_fast ship" speed="16.67" length="23.77" shape="358.80,805.04 357.56,798.12 356.13,793.49 354.68,788.86 353.37,781.95"/>
        <lane id=":642937388_1_2" index="2" disallow="pedestrian tram rail_urban rail rail_electric rail_fast ship" speed="16.67" length="23.77" shape="361.94,804.32 360.69,797.35 359.25,792.69 357.80,788.03 356.48,781.08"/>
    </edge>
    <edge id=":642937388_4" function="internal">
        <lane id=":642937388_4_0" index="0" disallow="pedestrian tram rail_urban rail rail_electric rail_fast ship" speed="16.67" length="23.88" shape="365.73,801.33 359.59,797.83 355.68,794.85 351.69,792.06 345.30,789.14"/>
        <lane id=":642937388_4_1" index="1" disallow="pedestrian tram rail_urban rail rail_electric rail_fast ship" speed="16.67" length="24.87" shape="365.73,801.33 359.66,797.31 356.24,793.34 352.74,789.56 346.41,786.14"/>
    </edge>
    <edge id=":642937388_6" function="internal">
        <lane id=":642937388_6_0" index="0" disallow="pedestrian tram rail_urban rail rail_electric rail_fast ship" speed="13.96" length="22.40" shape="365.73,801.33 359.56,797.66 354.92,793.36 351.82,788.41 350.25,782.82"/>
        <lane id=":642937388_6_1" index="1" disallow="pedestrian tram rail_urban rail rail_electric rail_fast ship" speed="13.19" length="22.40" shape="367.12,798.45 361.64,795.19 357.52,791.35 354.76,786.94 353.37,781.95"/>
        <lane id=":642937388_6_2" index="2" disallow="pedestrian tram rail_urban rail rail_electric rail_fast ship" speed="12.38" length="22.40" shape="368.51,795.57 363.72,792.71 360.11,789.35 357.70,785.47 356.48,781.08"/>
    </edge>
    <edge id=":642937391_0" function="internal">
        <lane id=":642937391_0_0" index="0" disallow="tram rail_urban rail rail_electric rail_fast ship" speed="16.67" length="20.45" shape="420.26,818.07 414.95,815.66 411.37,813.76 407.67,812.35 402.02,811.41"/>
        <lane id=":642937391_0_1" index="1" disallow="tram rail_urban rail rail_electric rail_fast ship" speed="16.67" length="20.45" shape="421.43,815.09 415.88,812.59 412.12,810.64 408.25,809.20 402.33,808.23"/>
        <lane id=":642937391_0_2" index="2" disallow="tram rail_urban rail rail_electric rail_fast ship" speed="16.67" length="20.45" shape="422.60,812.11 416.80,809.52 412.88,807.51 408.82,806.04 402.64,805.04"/>
    </edge>
    <edge id=":642937391_3" function="internal">
        <lane id=":642937391_3_0" index="0" disallow="tram rail_urban rail rail_electric rail_fast ship" speed="16.67" length="20.75" shape="422.97,807.99 416.94,810.09 412.68,811.35 408.34,811.79 402.02,811.41"/>
        <lane id=":642937391_3_1" index="1" disallow="tram rail_urban rail rail_electric rail_fast ship" speed="16.67" length="20.75" shape="422.50,804.77 416.69,806.82 412.60,808.09 408.42,808.56 402.33,808.23"/>
        <lane id=":642937391_3_2" index="2" disallow="tram rail_urban rail rail_electric rail_fast ship" speed="16.67" length="20.75" shape="422.03,801.55 416.44,803.55 412.51,804.83 408.50,805.34 402.64,805.04"/>
    </edge>
    <edge id=":642937394_0" function="internal">
        <lane id=":642937394_0_0" index="0" disallow="tram rail_urban rail rail_electric rail_fast ship" speed="16.67" length="19.69" shape="492.88,850.86 488.62,847.37 485.27,845.56 481.61,844.24 476.39,842.22"/>
        <lane id=":642937394_0_1" index="1" disallow="tram rail_urban rail rail_electric rail_fast ship" speed="16.67" length="19.69" shape="495.04,848.51 490.54,844.80 487.03,842.86 483.17,841.43 477.66,839.28"/>
        <lane id=":642937394_0_2" index="2" disallow="tram rail_urban rail rail_electric rail_fast ship" speed="16.67" length="19.69" shape="495.04,848.51 490.73,844.31 487.70,841.39 484.32,838.98 478.93,836.35"/>
    </edge>
    <edge id=":642937394_3" function="internal">
        <lane id=":642937394_3_0" index="0" disallow="tram rail_urban rail rail_electric rail_fast ship" speed="16.67" length="25.72" shape="481.08,826.12 485.55,831.22 489.82,835.34 494.30,839.28 499.38,843.80"/>
        <lane id=":642937394_3_1" index="1" disallow="tram rail_urban rail rail_electric rail_fast ship" speed="16.67" length="25.72" shape="478.59,828.12 483.10,833.28 487.49,837.52 492.08,841.58 497.21,846.16"/>
    </edge>
    <edge id=":651511424_0" function="internal">
        <lane id=":651511424_0_0" index="0" disallow="tram rail_urban rail rail_electric rail_fast ship" speed="16.67" length="2.95" shape="448.81,701.85 448.28,702.66 447.85,703.18 447.40,703.67 446.79,704.44"/>
        <lane id=":651511424_0_1" index="1" disallow="tram rail_urban rail rail_electric rail_fast ship" speed="16.67" length="2.95" shape="446.06,700.21 445.58,700.93 445.19,701.39 444.78,701.83 444.23,702.52"/>
        <lane id=":651511424_0_2" index="2" disallow="tram rail_urban rail rail_electric rail_fast ship" speed="16.67" length="2.95" shape="443.32,698.56 442.88,699.21 442.53,699.61 442.16,699.99 441.67,700.60"/>
    </edge>
    <edge id=":651511424_3" function="internal">
        <lane id=":651511424_3_0" index="0" disallow="tram rail_urban rail rail_electric rail_fast ship" speed="16.67" length="2.04" shape="434.47,695.20 434.64,694.73 434.73,694.40 434.84,694.08 435.08,693.64"/>
        <lane id=":651511424_3_1" index="1" disallow="tram rail_urban rail rail_electric rail_fast ship" speed="16.67" length="2.04" shape="437.11,697.18 437.31,696.61 437.42,696.20 437.55,695.81 437.82,695.28"/>
        <lane id=":651511424_3_2" index="2" disallow="tram rail_urban rail rail_electric rail_fast ship" speed="16.67" length="2.04" shape="439.75,699.16 439.99,698.49 440.10,698.01 440.25,697.55 440.57,696.92"/>
    </edge>
    <edge id=":9880384791_0" function="internal">
        <lane id=":9880384791_0_0" index="0" disallow="tram rail_urban rail rail_electric rail_fast ship" speed="3.65" length="4.67" shape="0.05,779.73 -1.17,778.97 -1.60,778.18 -1.23,777.37 -0.05,776.53"/>
    </edge>

    <edge id="-144411084#1" from="9880384791" to="642937377" name="улица Нахимова" priority="12" type="highway.primary" shape="0.00,778.13 83.79,775.38 90.19,775.21 156.80,772.98 174.44,772.46">
        <lane id="-144411084#1_0" index="0" disallow="tram rail_urban rail rail_electric rail_fast ship" speed="13.89" length="167.47" shape="-0.26,770.13 83.53,767.38 89.95,767.21 156.54,764.98 167.13,764.67">
            <param key="origId" value="144411084"/>
        </lane>
        <lane id="-144411084#1_1" index="1" disallow="tram rail_urban rail rail_electric rail_fast ship" speed="13.89" length="167.47" shape="-0.16,773.33 83.63,770.58 90.05,770.41 156.64,768.18 167.23,767.87">
            <param key="origId" value="144411084"/>
        </lane>
        <lane id="-144411084#1_2" index="2" disallow="tram rail_urban rail rail_electric rail_fast ship" speed="13.89" length="167.47" shape="-0.05,776.53 83.74,773.78 90.14,773.61 156.75,771.38 167.32,771.07">
            <param key="origId" value="144411084"/>
        </lane>
    </edge>
    <edge id="-797043580#1" from="1255622257" to="552894114" name="Красноармейская улица" priority="11" type="highway.secondary" shape="320.93,897.23 335.57,873.73 354.86,841.97 359.89,833.68">
        <lane id="-797043580#1_0" index="0" disallow="tram rail_urban rail rail_electric rail_fast ship" speed="16.67" length="79.73" shape="314.21,892.88 328.76,869.54 348.02,837.82 355.85,824.92">
            <param key="origId" value="797043580 118893114"/>
        </lane>
        <lane id="-797043580#1_1" index="1" disallow="tram rail_urban rail rail_electric rail_fast ship" speed="16.67" length="79.73" shape="316.93,894.57 331.48,871.21 350.76,839.48 358.58,826.58">
            <param key="origId" value="797043580 118893114"/>
        </lane>
        <lane id="-797043580#1_2" index="2" disallow="tram rail_urban rail rail_electric rail_fast ship" speed="16.67" length="79.73" shape="319.65,896.26 334.21,872.89 353.49,841.14 361.32,828.24">
            <param key="origId" value="797043580 118893114"/>
        </lane>
    </edge>
    <edge id="-797043586" from="4554212696" to="642937394" name="улица Елизаровых" priority="12" type="highway.primary" shape="601.87,943.55 570.56,915.19 556.89,903.28 526.80,875.82 508.67,858.88 495.94,847.16">
        <lane id="-797043586_0" index="0" disallow="tram rail_urban rail rail_electric rail_fast ship" speed="16.67" length="143.00" shape="598.65,947.11 567.37,918.78 553.70,906.86 523.54,879.35 505.41,862.40 492.88,850.86">
            <param key="origId" value="797043586 797043587 984203001 459620805 459620805"/>
        </lane>